<?xml version="1.0" encoding="UTF-8"?>

<!-- generated on Mon Aug 17 00:28:32 2020 by Eclipse SUMO duarouter Version v1_6_0+0899-45db7f4775
<configuration xmlns:xsi="http://www.w3.org/2001/XMLSchema-instance" xsi:noNamespaceSchemaLocation="http://sumo.dlr.de/xsd/duarouterConfiguration.xsd">

    <input>
        <net-file value="ncku.net.xml"/>
        <route-files value="trips.trips.xml"/>
    </input>

    <output>
        <output-file value="ncku.rou.xml"/>
        <alternatives-output value="ncku.rou.alt.xml"/>
    </output>

    <time>
        <begin value="0"/>
        <end value="1000"/>
    </time>

    <report>
        <no-warnings value="true"/>
        <ignore-errors value="true"/>
        <no-step-log value="true"/>
    </report>

</configuration>
-->

<routes xmlns:xsi="http://www.w3.org/2001/XMLSchema-instance" xsi:noNamespaceSchemaLocation="http://sumo.dlr.de/xsd/routes_file.xsd">
    <vehicle id="0" depart="0.00">
        <route edges="302241611#1 302241611#2 302241611#3 302241611#4 302241611#5 302241611#6 520547195#0 520547195#1 520547195#2 520547195#3 520547195#4 -313194340#2 -313194340#1 -313194340#0 -313194339 -315702598#2 -315702598#1 -315702598#0 -228022792#6 -228022792#5 -228022792#4 -228022792#3 -228022792#2 -228022792#1 -228022792#0 72871344 72871329#2 72871329#3 72871329#4 72871329#5 436251058 159315419 496249898#0 -81509012#0 496249903#0 -152086640#4 -152086640#3 -152086640#2 -152086640#1"/>
    </vehicle>
    <vehicle id="1" depart="1.00">
        <route edges="-531438436 531438436 319100698#3 319100698#4 319100698#5 42449638#0 228022804#4 313194185#0 313194185#1 313194185#2 313194185#3 313194185#4 313194185#5 313194185#6 313194185#7 313194185#8 313194185#9 313194185#10 313194185#11 313194185#12 313194185#13 313194185#14 313194185#15 313194185#16 313194185#17 313194185#18 313194185#19 313194185#20 313194185#21 313194185#22 313194185#23 313194185#24 313194185#25 313194185#26 313194185#27 496257370#0 496257370#1 496257370#2 405115648#0 405115648#1 405115648#2 405115648#3 405115648#4 405115648#5 405115648#6 -228022801 -307096543#6 -307096543#5 -307096543#4 -307096543#3 -307096543#2 -307096543#1 -307096543#0 -537706053#4 -537706053#3 -160312844#4 -160312844#3 -160312844#2 -160312844#1 -160312844#0 -482007539#3 -482007539#2 -482007539#1"/>
    </vehicle>
    <vehicle id="3" depart="3.00">
        <route edges="520547190#4 302246938 161036805 302246939#0 302246939#1 302246939#2 250709916#0 250709916#1 250709916#2 250709916#3 301189807#0 301189807#1 301189807#2 301189807#3 301189807#4 301189807#5 301189807#6 301189807#7 301189807#8 -160321077#2"/>
    </vehicle>
    <vehicle id="4" depart="4.00">
        <route edges="159279417#0 -41389169#2 -41389169#1 -496249900#0 152086662 -152086662"/>
    </vehicle>
    <vehicle id="5" depart="5.00">
        <route edges="-41389169#5 41389169#5 41389169#6 41389169#7 41389169#8 41389169#9 41389169#10 41389169#11 -307096544#3 -307096544#2 -307096544#1 -307096544#0 -158895303#5 -158895303#4 -158895303#3 -158895303#2 -158895303#1 -158895303#0 24452776 72871329#0 72871329#1 72871329#2 72871329#3 27067581 228022808#0 228022808#1 228022808#2 228022808#3 228022808#4 228022808#5 228022808#6 228022809#0 228022809#1 228022809#2 228022809#3 228022809#4 228022809#5 228022809#6"/>
    </vehicle>
    <vehicle id="6" depart="6.00">
        <route edges="-152193617#0 152193617#0 152193617#1 152193617#2 152193617#3 313194185#17 313194185#18 313194185#19 313194185#20 313194185#21 313194185#22 313194185#23 313194185#24 313194185#25 313194185#26 313194185#27 496257370#0 496257370#1 496257370#2 405115648#0 405115648#1 405115648#2 405115648#3 405115648#4 405115648#5 405115648#6 313194390#0 313194390#1 313194390#2 313194390#3 313194390#4 313194390#5 313194390#6 675775398 108071692#0 108071692#1 108071649#1 -313194339 -315702598#2 -315702598#1 -315702598#0 256288449#0 256288449#1 256288449#2 256288449#3 256288449#4 279365152#0 279365152#1 279365152#2 279365152#3 158782355#0 158782355#1 158782355#2 158782355#3 -38367673#2 -38367673#1 -38367673#0"/>
    </vehicle>
    <vehicle id="7" depart="7.00">
        <route edges="305144851#5 520547192 520547195#0 520547195#1 520547195#2 520547195#3 520547195#4 -313194340#2 -313194340#1 -313194340#0 -313194339 108071697#0 108071734#0 108071734#1 592381353 496257373#0 496257373#1 496257373#2 496257373#3 496257373#4 496257373#5 405115647#0 405115647#1 405115647#2 405115647#3 405115647#4 405115647#5 313194389#0 313194389#1 313194389#2 313194389#3 675775394 496257368#0 496257368#1 496257368#2 496257368#3 496257368#4 496257368#5 496257368#6 496257368#7 496257368#8 496257368#9 496257368#10 496257368#11 496257368#12 496257368#13 496257368#14 496257368#15 496257368#16 496257368#17 496257368#18 108071722#1 108071722#2 108071722#3 108071722#4 108071722#5 108071722#6 108071722#7 108071722#8 108071722#9 108071722#10 108071722#11 108071722#12 260620058#0 260620058#1 260620058#2 260620058#3"/>
    </vehicle>
    <vehicle id="8" depart="8.00">
        <route edges="-41389169#7 41389169#7 41389169#8 41389169#9 41389169#10 41389169#11 -307096544#3 -307096544#2 -307096544#1 -307096544#0 -158895303#5 -158895303#4 -158895303#3 -158895303#2 -158895303#1 -158895303#0 24452776 72871329#0 286847288#0 286847288#1 228022792#0 228022792#1 228022792#2 228022792#3 228022792#4 228022792#5 228022792#6 315702598#0 315702598#1 315702598#2 313194339 313194340#0 313194340#1 313194340#2 313194579 305144851#0 305144851#1 305144851#2 305144851#3 305144851#4 305144851#5 298272432#0"/>
    </vehicle>
    <vehicle id="9" depart="9.00">
        <route edges="496257368#20 496257368#21 496257368#22 496257368#23 496257368#24 160444011#0 160444011#1 160444011#2 160444011#3 160444011#4 160444011#5 160444011#6 108071721#0 108071721#1 108071721#2 -108071721#2"/>
    </vehicle>
    <vehicle id="10" depart="10.00">
        <route edges="496257368#13 496257368#14 108071733#6 313194185#12 313194185#13 313194185#14 313194185#15 313194185#16 313194185#17 313194185#18 313194185#19 313194185#20 313194185#21 313194185#22 313194185#23 313194185#24 313194185#25 313194185#26 313194185#27 496257370#0 496257370#1 496257370#2 405115648#0 405115648#1 405115648#2 405115648#3 405115648#4 405115648#5 405115648#6 313194390#0 313194390#1 313194390#2 313194390#3 313194390#4 313194390#5 313194390#6 675775397 592381354#0 592381354#1 592381354#2 313194758#0 313194758#1 313194758#2"/>
    </vehicle>
    <vehicle id="11" depart="11.00">
        <route edges="-81509011#2 81509011#2 81509011#3 306974310#2 306974310#3 306974310#4 306974310#5 228022810 72871329#5 72871331 158895303#0 158895303#1 158895303#2 158895303#3 158895303#4 158895303#5 -497944541 -152086644 -306977152 111343191 111343183 -497944542 -152086662 -111343189#1 -111343189#0 -253751064#8 -253751064#7 -253751064#6 -253751064#5 -253751064#4 -253751064#3 -253751064#2 -253751064#1 -253751064#0 -405115645 -405115644#5 -405115644#4 -405115644#3 -405115644#2 -405115644#1 -405115644#0 -298592946 298600770#0 298600770#1 298600770#2 298600770#3 298600770#4 -298600770#4"/>
    </vehicle>
    <vehicle id="12" depart="12.00">
        <route edges="675775395#1 675775395#2 298600775#0 313194185#27 496257370#0 496257370#1 496257370#2 405115648#0 405115648#1 405115648#2 405115648#3 405115648#4 405115648#5 405115648#6 313194390#0 313194390#1 313194390#2 313194390#3 313194390#4 313194390#5 313194390#6 675775398 108071692#0 108071692#1 108071649#1 -313194339 -315702598#2 -315702598#1 -315702598#0 -228022792#6 -228022792#5 -228022792#4 -228022792#3 81239973#0 81239973#1 81239973#2 81239973#3 81239973#4 81239973#5 -81239973#5"/>
    </vehicle>
    <vehicle id="13" depart="13.00">
        <route edges="-161409498#1 -161409498#0 -228022819#4 -228022819#3 -228022819#2 -228022819#1 -228022819#0"/>
    </vehicle>
    <vehicle id="15" depart="15.00">
        <route edges="496257368#17 496257368#18 496257368#19 496257368#20 496257368#21 496257368#22 496257368#23 496257368#24 160444011#0 160444011#1 160444011#2 160444011#3 160444011#4 -108071705 319100698#2"/>
    </vehicle>
    <vehicle id="16" depart="16.00">
        <route edges="260615170#11 260615170#12 260615170#13 -160253719#6 -160253719#5 -160253719#4 -160253719#3 -160253719#2 -160253719#1 -160253719#0 -496714508#2 -496714508#1 -496714508#0 -108071651#2 313194185#20 313194185#21 313194185#22 313194185#23 313194185#24 313194185#25 313194185#26 313194185#27 496257370#0 496257370#1 496257370#2 405115648#0 405115648#1 405115648#2 405115648#3 405115648#4 405115648#5 405115648#6 313194390#0 313194390#1 313194390#2 313194390#3 313194390#4 313194390#5 313194390#6 675775398 108071692#0 108071692#1 108071649#1 -313194339 -315702598#2 -315702598#1 -315702598#0 -228022792#6 -228022792#5 -228022792#4 -228022792#3 -228022792#2 -228022792#1 -228022792#0 72871344 72871329#2"/>
    </vehicle>
    <vehicle id="17" depart="17.00">
        <route edges="111343183 -497944542 -152086662 -111343189#1 -111343189#0 -253751064#8 -253751064#7 -253751064#6 -253751064#5 -253751064#4 -253751064#3 -253751064#2 -253751064#1 -253751064#0 -405115645 279049706#0"/>
    </vehicle>
    <vehicle id="18" depart="18.00">
        <route edges="496332188#6 609537125#4 228022799#4 228022799#5 228022799#6 228022799#7 228022799#8 228022799#9 496332192#0 496332192#1 496332192#2 496332192#3 496332192#4 313194185#0 313194185#1 313194185#2 313194185#3 313194185#4 313194185#5 313194185#6 313194185#7 313194185#8 313194185#9 313194185#10 313194185#11 313194185#12 313194185#13 313194185#14 313194185#15 313194185#16 313194185#17 313194185#18 313194185#19 313194185#20 313194185#21 313194185#22 313194185#23 313194185#24 313194185#25 313194185#26 298600775#1 298600775#2 298600775#3"/>
    </vehicle>
    <vehicle id="19" depart="19.00">
        <route edges="497901212#3 497901212#4 497901212#5 228022799#9 496332192#0 496332192#1 496332192#2 496332192#3 496332192#4 313194185#0 313194185#1 313194185#2 313194185#3 313194185#4 313194185#5 313194185#6 313194185#7 313194185#8 313194185#9 313194185#10 313194185#11 313194185#12 313194185#13 313194185#14 313194185#15 313194185#16 313194185#17 313194185#18 313194185#19 313194185#20 313194185#21 313194185#22 313194185#23 313194185#24 313194185#25 313194185#26 313194185#27 496257370#0 496257370#1 496257370#2 405115648#0 405115648#1 405115648#2 405115648#3 405115648#4 405115648#5 405115648#6 313194390#0 313194390#1 313194390#2 313194390#3 313194390#4 313194390#5 313194390#6 675775398 108071692#0 108071692#1 108071649#1 -313194339 -315702598#2 -315702598#1 -315702598#0 -228022792#6 -228022792#5 -228022792#4 -228022792#3 -228022792#2 -228022792#1 -228022792#0 72871344 72871329#2 72871329#3 27067581 228022808#0 228022808#1 228022808#2 228022808#3 228022808#4 228022808#5 228022808#6 228022787 286841509#0 286841509#1 286841509#2"/>
    </vehicle>
    <vehicle id="20" depart="20.00">
        <route edges="317035631#1 317035631#2 -589636012#8 317035638#1 317035638#2 611774238#3 611774238#4 319100698#0 319100698#1 319100698#2 319100698#3 319100698#4 319100698#5 42449638#0 228022804#4 313194185#0 313194185#1 313194185#2 313194185#3 313194185#4 313194185#5 313194185#6 313194185#7 313194185#8 313194185#9 313194185#10 313194185#11 313194185#12 313194185#13 313194185#14 313194185#15 313194185#16 313194185#17 313194185#18 313194185#19 313194185#20 313194185#21 313194185#22 313194185#23 313194185#24 313194185#25 313194185#26 313194185#27 496257370#0 496257370#1 496257370#2 405115648#0 405115648#1 405115648#2 405115648#3 405115648#4 405115648#5 405115648#6 313194390#0 313194390#1 313194390#2 313194390#3 313194390#4 313194390#5 313194390#6 675775398 108071692#0 108071692#1 108071649#1 -313194339 -315702598#2 -315702598#1 -315702598#0 -228022792#6 -228022792#5 -228022792#4 -228022792#3 -228022792#2 -228022792#1 -228022792#0 72871344 72871329#2 72871329#3 72871329#4 72871329#5 436251058 159315419 496249898#0 496249898#1 496249898#2 297757247#0 297757247#1 297757247#2 297757247#3 297896463#0 297896463#1 -159216680#4 -159216680#3"/>
    </vehicle>
    <vehicle id="21" depart="21.00">
        <route edges="-482007539#0 -482007537#0 -31794913#2 -31794913#1 -31794913#0 -592381354#2 -592381354#1 -592381354#0 496257373#0 496257373#1 496257373#2 496257373#3 496257373#4 496257373#5 405115647#0 405115647#1 405115647#2 405115647#3 405115647#4 405115647#5 313194389#0 313194389#1 313194389#2 313194389#3 675775394 496257368#0 496257368#1 496257368#2 496257368#3 496257368#4 496257368#5 496257368#6 496257368#7 496257368#8 496257368#9 496257368#10 496257368#11 496257368#12 496257368#13 496257368#14 496257368#15 496257368#16 496257368#17 496257368#18 496257368#19 496257368#20 496257368#21 496257368#22 496257368#23 496257368#24 160444011#0 160444011#1 160444011#2 160444011#3 160444011#4 -108071705 319100698#2 -531438436 -589636012#1"/>
    </vehicle>
    <vehicle id="22" depart="22.00">
        <route edges="-160253725#4 160253725#4 160253725#5 160253725#6 160253725#7 160253725#8 160253725#9 160253725#10 160253725#11 160253725#12 160253725#13 160253725#14 -298600770#3 -298600770#2 -298600770#1 -298600770#0 298592946 405115644#0 405115644#1 405115644#2 405115644#3 405115644#4 405115644#5 405115645 253751064#0 253751064#1 253751064#2 253751064#3 253751064#4 253751064#5 253751064#6 253751064#7 253751064#8 -496261704#4 -496261704#3 -496261704#2 -496261704#1 -496261704#0"/>
    </vehicle>
    <vehicle id="23" depart="23.00">
        <route edges="-243773566#3 243773566#3 302241611#1 302241611#2 302241611#3 302241611#4 302241611#5 302241611#6 520547195#0 520547195#1 520547195#2 520547195#3 520547195#4 -313194340#2 -313194340#1 -313194340#0 -313194339 108071697#0 108071734#0 108071734#1 592381353 496257373#0 496257373#1 496257373#2 496257373#3 496257373#4 496257373#5 405115647#0 405115647#1 405115647#2 405115647#3 405115647#4 405115647#5 313194389#0 313194389#1 313194389#2 313194389#3 496257369#0 496257369#1 496257369#2 298600774#0 298600774#1 298600774#2 -536831318#4 -536831318#3"/>
    </vehicle>
    <vehicle id="24" depart="24.00">
        <route edges="302241609#0 -302241609#0 520547195#0 520547195#1 520547195#2 520547195#3 520547195#4 313194579 313194578 -108071685 228022819#0 228022819#1 228022819#2 228022819#3 228022819#4 228022819#5 228022819#6 228022819#7 228022819#8 228022819#9 228022819#10 228022819#11 261996322#0 261996322#1 261996322#2 261996322#3 261996322#4 261996322#5 313194274 675775399#0 675775399#1 675775399#2 108071712#0 108071712#1 108071712#2 108071712#3 108071712#4 108071712#5 108071712#6 108071712#7 108071712#8 108071712#9 108071712#10 108071712#11 108071712#12"/>
    </vehicle>
    <vehicle id="25" depart="25.00">
        <route edges="108071721#2 611774240#0 611774240#1 -260615170#8 -260615170#7 -260615170#6 -260615170#5 -260615170#4 -260615170#3 -260615170#2 -260615170#1 -260615170#0 -298600770#5 -298600770#4 -298600770#3 -298600770#2 -298600770#1 -298600770#0 298592946 405115644#0 405115644#1 405115644#2 405115644#3 405115644#4 405115644#5 -405115644#5"/>
    </vehicle>
    <vehicle id="26" depart="26.00">
        <route edges="-497901212#8 -497901212#7 -497901212#6 228022799#9 496332192#0 496332192#1 496332192#2 496332192#3 496332192#4 305261628 160444011#0 160444011#1 160444011#2 160444011#3 160444011#4 -108071705 -531438437 589636012#3 589636012#4 589636012#5"/>
    </vehicle>
    <vehicle id="27" depart="27.00">
        <route edges="302246940 362553483#0 38367672#6 250709917#7 362553482 161036805 142297115 302241611#0 302241611#1 302241611#2 302241611#3 302241611#4 302241611#5 302241611#6 520547195#0 520547195#1 520547195#2 520547195#3 520547195#4 -313194340#2 -313194340#1 -313194340#0 -313194339 108071697#0 108071734#0 108071734#1 592381353 496257373#0 496257373#1 496257373#2 496257373#3 496257373#4 496257373#5 405115647#0 405115647#1 405115647#2 405115647#3 405115647#4 405115647#5 313194389#0 313194389#1 313194389#2 313194389#3 496257369#0 496257369#1 496257369#2 -298600772 -298600773#7 -298600773#6 298600773#6"/>
    </vehicle>
    <vehicle id="28" depart="28.00">
        <route edges="-307096543#5 307096543#5 307096543#6 405115647#0 405115647#1 405115647#2 405115647#3 405115647#4 405115647#5 313194389#0 313194389#1 313194389#2 313194389#3 675775394 496257368#0 496257368#1 496257368#2 496257368#3 496257368#4 496257368#5 496257368#6 496257368#7 496257368#8 496257368#9 496257368#10 496257368#11 496257368#12 496257368#13 496257368#14 496257368#15 496257368#16 496257368#17 496257368#18 496257368#19 496257368#20 496257368#21 496257368#22 496257368#23 496257368#24 160444011#0 160444011#1 160444011#2 160444011#3 160444011#4 -108071705 319100698#2"/>
    </vehicle>
    <vehicle id="29" depart="29.00">
        <route edges="-306997497#1 -306997497#0 -24430153#1 -24430153#0 319713269#3 319713269#4 319713269#5 72871326#0 72871326#1 259871042#0 259871042#1 259871042#2 297757244#0 297757244#1 297757244#2 297757244#3 228022791 24452776 72871329#0 286847288#0 286847288#1 228022792#0 228022792#1 228022792#2 228022792#3 228022792#4 228022792#5 228022792#6 315702598#0 315702598#1 315702598#2 108071697#0 108071734#0 108071734#1 592381353 496257373#0 496257373#1 496257373#2 496257373#3 496257373#4 496257373#5 405115647#0 405115647#1 405115647#2 405115647#3 405115647#4 405115647#5 313194389#0 313194389#1 313194389#2 313194389#3 675775394 496257368#0 496257368#1 496257368#2 496257368#3 496257368#4 496257368#5 496257368#6 496257368#7 496257368#8 496257368#9 496257368#10 496257368#11 496257368#12 496257368#13 496257368#14 496257368#15 496257368#16 496257368#17 496257368#18 108071722#1 108071722#2 108071722#3 108071722#4 108071722#5 108071722#6 108071722#7 108071722#8 108071722#9 108071722#10 108071722#11"/>
    </vehicle>
    <vehicle id="30" depart="30.00">
        <route edges="81239973#5 81239973#6 -279365144#0 279365152#0 279365152#1 279365152#2 279365152#3 158782355#0 158782355#1 158782355#2 243773566#0 243773566#1 243773566#2 243773566#3 302241611#1 302241611#2"/>
    </vehicle>
    <vehicle id="31" depart="31.00">
        <route edges="279049706#9 279049706#10 313194389#1 313194389#2 313194389#3 675775394 496257368#0 496257368#1 496257368#2 496257368#3 496257368#4 496257368#5 496257368#6 496257368#7 496257368#8 496257368#9 496257368#10 496257368#11 496257368#12 496257368#13 496257368#14 496257368#15 496257368#16 496257368#17 496257368#18 496257368#19 496257368#20 496257368#21 496257368#22 496257368#23 496257368#24 592381355 313194186#0 313194186#1 313194186#2"/>
    </vehicle>
    <vehicle id="32" depart="32.00">
        <route edges="496332194#16 -496332194#16 -496332194#15 -496332194#14 -496332194#13 260615169#4 260615169#5 260615169#6 260615169#7 260615169#8 160444011#5 160444011#6 405115649#0 405115649#1"/>
    </vehicle>
    <vehicle id="33" depart="33.00">
        <route edges="-482007539#1 -160312815 537706053#1 537706053#2 537706053#3 537706053#4 307096543#0 307096543#1 307096543#2 307096543#3 307096543#4 307096543#5 307096543#6 405115647#0 405115647#1 405115647#2 405115647#3 405115647#4 405115647#5 313194389#0 313194389#1 313194389#2 313194389#3 675775394 496257368#0 496257368#1 496257368#2 496257368#3 496257368#4 496257368#5 496257368#6 496257368#7 496257368#8 496257368#9 496257368#10 496257368#11 -152193617#4 -152193617#3 -152193617#2"/>
    </vehicle>
    <vehicle id="34" depart="34.00">
        <route edges="-611774240#2 -611774240#1 -611774240#0 -108071721#2 -108071721#1 -108071721#0 -611774239 319100698#0 319100698#1 319100698#2 -531438436"/>
    </vehicle>
    <vehicle id="35" depart="35.00">
        <route edges="-392464674#1 -392464674#0 -260620058#3 -260620058#2 -260620058#1 -260620058#0 -108071722#12 -108071722#11 -108071722#10 -108071722#9 -108071722#8 -108071722#7 -108071722#6 -108071722#5 -108071722#4 -108071722#3 -108071722#2 -108071722#1 -108071722#0 313194185#9 313194185#10 313194185#11 313194185#12 313194185#13 313194185#14 313194185#15 313194185#16 313194185#17 313194185#18 313194185#19 313194185#20 313194185#21 313194185#22 313194185#23 313194185#24 313194185#25 313194185#26 313194185#27 496257370#0 496257370#1 496257370#2 405115648#0 405115648#1 405115648#2 405115648#3 405115648#4 405115648#5 405115648#6 313194390#0 313194390#1 313194390#2 313194390#3 313194390#4 313194390#5 313194390#6 675775397 592381354#0 592381354#1"/>
    </vehicle>
    <vehicle id="36" depart="36.00">
        <route edges="520547189#0 520547189#1 520547189#2 520547189#3 520547189#4 520547189#5 520547189#6 520547189#7 520547189#8 520547189#9 520547189#10 520547189#11 520547189#12 298982166#11 298982166#12 298982166#13 298982166#14 298982166#15 313194389#0 313194389#1 313194389#2 313194389#3 496257369#0 496257369#1 496257369#2 -298600772 -298600773#7 -298600773#6 -298600773#5 -298600773#4 -298600773#3 -298600773#2 -298600773#1 160253725#0 160253725#1 160253725#2 160253725#3 160253725#4 160253725#5 160253725#6 160253725#7 160253725#8 -611774240#2"/>
    </vehicle>
    <vehicle id="37" depart="37.00">
        <route edges="306997494 -306997494 -297896463#3 -297896463#2 -297896463#1 -297896463#0 -297757247#3 -297757247#2 -297757247#1 -297757247#0 297757246 -152086640#6 -152086640#5 -152086640#4 -152086640#3 -152086640#2 -152086640#1 -152086640#0 152086640#0"/>
    </vehicle>
    <vehicle id="38" depart="38.00">
        <route edges="536831320#5 536831320#6 -405115645 -405115644#5 -405115644#4 -405115644#3 -405115644#2 -405115644#1 -405115644#0 -298592946 298600770#0 298600770#1 298600770#2 298600770#3 -160253725#14 -160253725#13 160253725#13"/>
    </vehicle>
    <vehicle id="39" depart="39.00">
        <route edges="-497901212#5 497901212#5 228022799#9 496332192#0 496332192#1 496332192#2 496332192#3 496332192#4 313194185#0 313194185#1 313194185#2 313194185#3 313194185#4 313194185#5 313194185#6 313194185#7 313194185#8 313194185#9 313194185#10 313194185#11 313194185#12 313194185#13 313194185#14 313194185#15 313194185#16 313194185#17 313194185#18 313194185#19 313194185#20 313194185#21 313194185#22 313194185#23 313194185#24 313194185#25 313194185#26 313194185#27 496257370#0 496257370#1 496257370#2 405115648#0 405115648#1 405115648#2 405115648#3 405115648#4 405115648#5 405115648#6 313194390#0 313194390#1 313194390#2 313194390#3 313194390#4 313194390#5 313194390#6 675775398 108071692#0 108071692#1 108071649#1 -313194339 -315702598#2 -315702598#1 -315702598#0 -228022792#6 -228022792#5 -228022792#4 -228022792#3 -228022792#2 -228022792#1 -228022792#0 72871344 72871329#2 72871329#3 72871329#4 72871329#5 436251058 159315419 496249898#0 496249898#1 496249898#2 297757243#0 297757243#1 -161024939 -496332199#1 -496332199#0 -496332196#1 -496332196#0 496332197#0 496332197#1 496332197#2 -496332197#2"/>
    </vehicle>
    <vehicle id="40" depart="40.00">
        <route edges="279365144#0 -279365144#0 -256288449#4 -256288449#3 -256288449#2 -256288449#1 -256288449#0 315702598#0 315702598#1 315702598#2 108071697#0 108071734#0 108071734#1 592381353 496257373#0 496257373#1 496257373#2 496257373#3 496257373#4 496257373#5 405115647#0 405115647#1 405115647#2 405115647#3 405115647#4 405115647#5 313194389#0 313194389#1 313194389#2 313194389#3 675775394 496257368#0 496257368#1 496257368#2 496257368#3 496257368#4 496257368#5 496257368#6 496257368#7 496257368#8 496257368#9 496257368#10 496257368#11 496257368#12 496257368#13 496257368#14 496257368#15 496257368#16 496257368#17 496257368#18 496257368#19 496257368#20 496257368#21 496257368#22 496257368#23 496257368#24 592381355 42449638#0 42449638#1 42449638#2 42449638#3 42449638#4 42449638#5 42449638#6 496332188#0 496332188#1 496332188#2 496332188#3 160095006#0 160095006#1 160095006#2 160095006#3 160095006#4 160095006#5 160095006#6 -497901217#1"/>
    </vehicle>
    <vehicle id="41" depart="41.00">
        <route edges="297896463#3 -297896463#3 -297896463#2 -297896463#1 -297896463#0 -297757247#3 -297757247#2 -297757247#1 -297757247#0 297757246 297757244#0 297757244#1 297757244#2 297757244#3 228022791 24452776 72871329#0 286847288#0 286847288#1 228022792#0 228022792#1 228022792#2 228022792#3 228022792#4 228022792#5 228022792#6 315702598#0 315702598#1 315702598#2 313194339 313194340#0 313194340#1 313194340#2 160197249#0 160197249#1 160197249#2 160197249#3 160197249#4 520547189#0 520547189#1 520547189#2 520547189#3 520547189#4 520547189#5 520547189#6 520547189#7 520547189#8"/>
    </vehicle>
    <vehicle id="42" depart="42.00">
        <route edges="152193617#2 152193617#3 313194185#17 313194185#18 313194185#19 313194185#20 313194185#21 313194185#22 313194185#23 313194185#24 313194185#25 313194185#26 313194185#27 496257370#0 496257370#1 496257370#2 405115648#0 405115648#1 405115648#2 405115648#3 405115648#4 405115648#5 405115648#6 313194390#0 313194390#1 313194390#2 313194390#3 313194390#4 313194390#5 313194390#6 675775398 108071692#0 108071692#1 108071649#1 -313194339 -315702598#2 -315702598#1 -315702598#0 -228022792#6 -228022792#5 -228022792#4 -228022792#3 -228022792#2 -228022792#1 -228022792#0 72871344 72871329#2 72871329#3 72871329#4 72871329#5 72871331 158895303#0 158895303#1 158895303#2 158895303#3 158895303#4 158895303#5 -497944541 -152086644 -306977152 -507869446#1 -507869446#0 152086655#0 152086655#1 152086655#2 152086655#3 -445546026#4 -445546026#3 -445546026#2"/>
    </vehicle>
    <vehicle id="43" depart="43.00">
        <route edges="81509011#2 81509011#3 306974310#2 306974310#3 306974310#4 306974310#5 228022810 72871329#5 72871329#6 72871329#0 286847288#0 286847288#1 228022792#0 228022792#1 228022792#2 228022792#3 228022792#4 228022792#5 228022792#6 315702598#0 315702598#1 315702598#2 313194339 313194340#0 313194340#1 313194340#2 313194579 313194578 -108071685 228022819#0 228022819#1 228022819#2 228022819#3 228022819#4 228022819#5 228022819#6 228022819#7 228022819#8"/>
    </vehicle>
    <vehicle id="44" depart="44.00">
        <route edges="-161156220#9 -161156220#8 -161156220#7 -161156220#6 -161156220#5 -161156220#4 41389169#7 41389169#8 41389169#9 41389169#10 41389169#11 41389169#12 41389169#13 41389169#14 496332200#0 496332200#1 496332200#2 496332200#3 496332200#4 496332200#5 496332200#6 496332200#7 41389183#0 41389183#1 41389183#2 159279412 -159279412"/>
    </vehicle>
    <vehicle id="45" depart="45.00">
        <route edges="-259871063#0 -161024939 259871042#0 259871042#1 259871042#2 297757244#0 297757244#1 297757244#2 297757244#3 228022791 24452776 72871329#0 286847288#0 286847288#1 228022792#0 228022792#1 228022792#2 228022792#3 228022792#4 228022792#5 228022792#6 315702598#0 315702598#1 315702598#2 108071697#0 108071734#0 108071734#1 592381353 496257373#0 496257373#1 496257373#2 496257373#3 496257373#4 496257373#5 405115647#0 405115647#1 405115647#2 405115647#3 405115647#4 405115647#5 313194389#0 405115651 38367661#0 38367661#1 38367661#2 38367661#3 38367661#4 31794910#9 298982166#10 298982166#11 298982166#12 298982166#13"/>
    </vehicle>
    <vehicle id="46" depart="46.00">
        <route edges="496249898#0 496249898#1 496249898#2 297757247#0 297757247#1 297757247#2 297757247#3 297896463#0 297896463#1 -159216680#4 -159216680#3 -159216680#2 -159216680#1 -159216680#0 159216680#0"/>
    </vehicle>
    <vehicle id="47" depart="47.00">
        <route edges="-160095081 609537125#3 609537125#4 228022799#4 228022799#5 228022799#6 228022799#7 228022799#8 228022799#9 496332192#0 496332192#1 496332192#2 496332192#3 496332192#4 313194185#0 313194185#1 313194185#2 313194185#3 313194185#4 313194185#5 313194185#6 313194185#7 313194185#8 108071722#0 108071722#1 108071722#2 108071722#3 108071722#4 108071722#5 108071722#6 108071722#7 108071722#8"/>
    </vehicle>
    <vehicle id="48" depart="48.00">
        <route edges="81357763#3 286841509#3 286841509#4 -307097146 -259871063#1 -259871063#0 259871043#0"/>
    </vehicle>
    <vehicle id="49" depart="49.00">
        <route edges="72871334#2 -72871334#2 -72871334#1 -72871334#0 72871329#3 72871329#4 72871329#5 436251058 159315419 496249898#0 496249898#1 496249898#2 297757243#0 297757243#1 -161024939 -496332199#1 496332199#1"/>
    </vehicle>
    <vehicle id="50" depart="50.00">
        <route edges="-108071733#3 -108071733#2 314693930#0 314693930#1 -152193617#4 313194185#17 313194185#18 313194185#19 313194185#20 313194185#21 313194185#22 313194185#23 313194185#24 313194185#25 313194185#26 313194185#27 496257370#0 496257370#1 496257370#2 38367661#0 38367661#1 38367661#2 38367661#3 38367661#4 31794910#9 31794910#10 31794910#11 31794910#12 31794910#13 31794910#14"/>
    </vehicle>
    <vehicle id="51" depart="51.00">
        <route edges="313194273#0 -313194273#0 108071712#0 108071712#1 108071712#2 108071712#3 108071712#4 108071712#5 108071712#6 108071712#7 108071712#8 108071712#9 108071712#10 108071712#11 108071712#12 108071712#13 108071712#14 108071712#15 108071712#16 108071712#17 520547187#0 520547187#1 520547187#2 496257371 675775394 496257368#0 496257368#1 496257368#2 496257368#3 496257368#4 496257368#5 496257368#6 496257368#7 496257368#8 496257368#9 496257368#10 496257368#11 496257368#12 496257368#13 496257368#14 496257368#15 496257368#16 496257368#17 496257368#18 108071722#1 108071722#2 108071722#3 108071722#4 108071722#5 108071722#6 108071722#7 108071722#8 108071722#9 108071722#10 108071722#11 108071722#12 260615169#6"/>
    </vehicle>
    <vehicle id="52" depart="52.00">