<?xml version="1.0" encoding="UTF-8"?>

<!-- generated on Mon Aug 10 17:27:45 2020 by SUMO polyconvert Version 0.32.0
<?xml version="1.0" encoding="UTF-8"?>

<configuration xmlns:xsi="http://www.w3.org/2001/XMLSchema-instance" xsi:noNamespaceSchemaLocation="http://sumo.dlr.de/xsd/polyconvertConfiguration.xsd">

    <input>
        <net-file value="ncku.net.xml"/>
        <osm-files value="ncku.osm"/>
        <type-file value="typemap.xml"/>
    </input>

    <output>
        <output-file value="ncku.poly.xml"/>
    </output>

    <processing>
        <poi-layer-offset value="5"/>
    </processing>

</configuration>
-->

<additional xmlns:xsi="http://www.w3.org/2001/XMLSchema-instance" xsi:noNamespaceSchemaLocation="http://sumo.dlr.de/xsd/additional_file.xsd">
    <location netOffset="-213104.10,-2539069.67" convBoundary="-3706.45,0.00,3975.87,9781.94" origBoundary="120.165094,22.935618,120.240074,23.023516" projParameter="+proj=utm +zone=51 +ellps=WGS84 +datum=WGS84 +units=m +no_defs"/>

    <poly id="108071699" type="leisure" color="207,245,201" fill="1" layer="-2.00" shape="2240.65,7186.47 2354.77,7176.79 2351.70,7140.92 2237.58,7150.61 2240.65,7186.47"/>
    <poly id="108071699#1" type="sport" color="79,230,125" fill="1" layer="-2.00" shape="2240.65,7186.47 2354.77,7176.79 2351.70,7140.92 2237.58,7150.61 2240.65,7186.47"/>
    <poly id="108071719" type="leisure" color="207,245,201" fill="1" layer="-2.00" shape="2354.56,6659.12 2386.85,6656.44 2381.11,6587.89 2348.81,6590.57 2354.56,6659.12"/>
    <poly id="108071719#1" type="sport" color="79,230,125" fill="1" layer="-2.00" shape="2354.56,6659.12 2386.85,6656.44 2381.11,6587.89 2348.81,6590.57 2354.56,6659.12"/>
    <poly id="108071726" type="leisure" color="207,245,201" fill="1" layer="-2.00" shape="2504.08,6424.26 2501.42,6383.38 2395.48,6390.25 2398.16,6431.12 2504.08,6424.26"/>
    <poly id="108071726#1" type="sport" color="79,230,125" fill="1" layer="-2.00" shape="2504.08,6424.26 2501.42,6383.38 2395.48,6390.25 2398.16,6431.12 2504.08,6424.26"/>
    <poly id="108071729" type="leisure" color="207,245,201" fill="1" layer="-2.00" shape="2275.16,7128.24 2330.98,7122.95 2328.27,7094.70 2272.46,7099.99 2275.16,7128.24"/>
    <poly id="108071729#1" type="sport" color="79,230,125" fill="1" layer="-2.00" shape="2275.16,7128.24 2330.98,7122.95 2328.27,7094.70 2272.46,7099.99 2275.16,7128.24"/>
    <poly id="111343182" type="amenity" color="237,199,199" fill="1" layer="-1.00" shape="2188.95,7420.55 2379.26,7386.15 2363.75,7230.03 2174.13,7247.39 2188.95,7420.55"/>
    <poly id="111343184" type="amenity" color="237,199,199" fill="1" layer="-1.00" shape="1785.31,7284.21 2146.91,7256.06 2160.68,7425.95 1977.49,7462.47 1797.80,7497.51 1785.31,7284.21"/>
    <poly id="111343185" type="amenity" color="237,199,199" fill="1" layer="-1.00" shape="2148.03,6446.86 2192.07,6433.80 2288.67,6423.73 2278.43,6281.24 2224.91,6287.48 2215.20,6296.18 2175.23,6298.27 2164.14,6340.17 2156.62,6367.85 2148.03,6446.86"/>
    <poly id="111343187" type="amenity" color="237,199,199" fill="1" layer="-1.00" shape="2103.36,6521.65 2298.22,6503.51 2362.01,7182.36 2167.14,7200.50 2103.36,6521.65"/>
    <poly id="111343188" type="tourism" color="207,245,201" fill="1" layer="-2.00" shape="985.28,7663.73 1251.07,7598.59 1166.67,7178.65 1159.06,7172.44 981.50,7227.31 791.91,7295.20 787.48,7308.89 787.56,7316.45 949.34,7598.99 985.28,7663.73"/>
    <poly id="111343190" type="amenity" color="237,199,199" fill="1" layer="-1.00" shape="1848.49,6302.89 1932.68,6294.16 1935.32,6328.75 1998.40,6355.76 2047.88,6354.48 2049.01,6391.71 2046.81,6412.39 2043.98,6431.64 2043.26,6458.48 1981.52,6458.50 1981.53,6564.56 1918.69,6569.50 1922.29,6716.71 1730.82,6725.94 1723.84,6610.17 1720.58,6607.33 1718.19,6540.20 1711.73,6491.59 1710.55,6477.95 1783.31,6448.70 1859.56,6445.50 1855.80,6387.66 1877.84,6385.75 1873.95,6341.04 1851.90,6342.94 1848.49,6302.89"/>
    <poly id="111343193" type="amenity" color="237,199,199" fill="1" layer="-1.00" shape="1417.99,7564.27 1782.78,7497.05 1765.44,7297.44 1751.50,7289.86 1526.61,7319.89 1480.93,7326.78 1382.39,7342.22 1417.99,7564.27"/>
    <poly id="111343194" type="amenity" color="237,199,199" fill="1" layer="-1.00" shape="1781.54,7241.29 2142.88,7208.10 2097.67,6720.19 1736.32,6753.38 1781.54,7241.29"/>
    <poly id="117916590" type="tourism" color="207,245,201" fill="1" layer="-2.00" shape="1751.55,8294.98 1729.26,8263.95 1864.34,8160.63 1837.73,8126.58 1953.96,8037.68 1945.39,8126.71 1863.28,8189.82 1870.50,8199.67 1751.55,8294.98"/>
    <poly id="117916591" type="landuse" color="194,194,130" fill="1" layer="-3.00" shape="2034.91,8000.16 2137.05,8063.63 2205.55,8009.16 2134.67,7963.36 2144.08,7942.29 2093.13,7923.52 2070.66,7939.31 2034.91,8000.16"/>
    <poly id="117916592" type="water" color="181,209,209" fill="0" layer="-4.00" shape="2427.75,6270.31 2400.82,6299.24 2403.72,6336.34 2386.59,6360.72 2362.94,6389.59 2361.37,6422.41 2439.11,6754.32 2452.16,6804.36 2454.02,6844.76 2461.77,6905.83 2484.31,6934.92 2497.37,6986.04 2520.07,7023.87 2544.91,7058.38 2581.19,7116.72 2605.55,7184.62 2619.66,7232.94 2627.44,7266.75 2642.89,7277.52 2688.95,7305.63 2721.37,7310.41 2746.57,7311.71 2771.63,7333.91 2806.18,7375.55"/>
    <poly id="152193626" type="tourism" color="207,245,201" fill="1" layer="-2.00" shape="2780.35,7304.39 2779.66,7285.80 2730.82,7272.39 2718.10,7266.10 2701.88,7296.44 2707.45,7301.38 2773.38,7306.89 2780.35,7304.39"/>
    <poly id="158995057" type="landuse" color="194,194,130" fill="1" layer="-3.00" shape="122.22,7706.00 150.58,7671.22 210.93,7596.77 240.86,7560.51 242.68,7558.28 262.34,7586.40 283.98,7617.36 286.65,7621.18 290.36,7626.49 286.74,7630.43 290.61,7635.52 209.63,7734.20 202.86,7735.90 122.22,7706.00"/>
    <poly id="158995065" type="amenity" color="237,199,199" fill="1" layer="-1.00" shape="923.01,7231.79 873.07,7101.25 868.42,7103.24 849.30,7109.62 702.71,7162.15 734.71,7204.43 737.84,7209.71 773.43,7275.81 775.52,7279.17 923.01,7231.79"/>
    <poly id="158995066" type="building" color="255,230,230" fill="1" layer="-1.00" shape="202.94,7724.04 195.82,7718.22 198.40,7715.10 166.84,7689.28 159.87,7697.70 145.28,7685.77 214.32,7602.37 233.54,7618.09 235.69,7615.49 272.40,7645.53 251.45,7670.85 254.52,7673.35 239.28,7691.75 235.73,7688.85 207.77,7722.62 205.60,7720.83 202.94,7724.04"/>
    <poly id="158995066#1" type="shop" color="237,199,255" fill="1" layer="-1.00" shape="202.94,7724.04 195.82,7718.22 198.40,7715.10 166.84,7689.28 159.87,7697.70 145.28,7685.77 214.32,7602.37 233.54,7618.09 235.69,7615.49 272.40,7645.53 251.45,7670.85 254.52,7673.35 239.28,7691.75 235.73,7688.85 207.77,7722.62 205.60,7720.83 202.94,7724.04"/>
    <poly id="158995070" type="amenity" color="237,199,199" fill="1" layer="-1.00" shape="129.47,6960.73 151.89,6944.22 146.76,6925.87 161.87,6918.38 195.50,6903.55 198.46,6905.07 207.63,6904.99 246.39,7020.32 240.85,7022.57 249.04,7044.54 208.69,7059.89 159.38,7079.08 156.15,7079.03 117.44,6974.17 114.69,6966.54 129.47,6960.73"/>
    <poly id="158995071" type="amenity" color="237,199,199" fill="1" layer="-1.00" shape="294.12,7668.60 307.45,7660.68 319.37,7673.08 330.89,7680.91 351.45,7708.20 353.80,7710.01 359.23,7714.22 397.02,7743.44 430.01,7774.67 460.87,7839.05 321.38,7928.12 301.39,7910.42 211.37,7825.84 191.15,7806.83 182.25,7798.16 212.53,7773.69 209.81,7770.99 294.12,7668.60"/>
    <poly id="158995082" type="parking" color="184,184,179" fill="1" layer="-1.00" shape="277.93,7651.24 272.40,7645.53 235.69,7615.49 233.54,7618.09 214.32,7602.37 210.93,7596.77 240.86,7560.51 242.68,7558.28 261.94,7585.83 283.98,7617.36 286.65,7621.18 290.36,7626.49 286.74,7630.43 290.61,7635.52 277.93,7651.24"/>
    <poly id="159014255" type="building" color="255,230,230" fill="1" layer="-1.00" shape="438.04,8182.09 589.49,8093.55 636.78,8174.62 636.45,8182.95 600.41,8195.29 537.88,8214.96 514.00,8215.25 485.99,8225.64 468.97,8226.39 438.04,8182.09"/>
    <poly id="159014286" type="amenity" color="237,199,199" fill="1" layer="-1.00" shape="491.07,8142.89 462.78,8159.39 438.82,8124.06 434.99,8119.20 421.90,8099.95 420.05,8096.96 468.73,8062.27 552.88,8026.07 584.29,8087.57 545.56,8107.37 533.19,8083.73 484.37,8101.90 470.03,8112.53 491.07,8142.89"/>
    <poly id="159014287" type="parking" color="184,184,179" fill="1" layer="-1.00" shape="465.52,8163.03 432.74,8121.68 410.15,8137.39 438.59,8177.90 465.52,8163.03"/>
    <poly id="159216699" type="tourism" color="207,245,201" fill="1" layer="-2.00" shape="397.77,6333.23 388.15,6326.50 376.96,6322.92 365.19,6322.82 353.93,6326.23 344.22,6332.81 336.91,6341.98 332.69,6352.90 331.94,6364.56 334.45,6375.27 339.87,6384.83 347.79,6392.49 357.54,6397.63 368.36,6399.86 379.36,6398.97 389.00,6395.43 397.36,6389.49 403.88,6381.60 408.10,6372.28 409.72,6362.19 408.63,6352.03 404.92,6342.51 397.77,6333.23"/>
    <poly id="159270415" type="amenity" color="237,199,199" fill="0" layer="-1.00" shape="316.46,6050.98 304.09,5990.59 298.35,5984.97 261.96,5994.07 166.04,6018.04 98.54,6034.47 91.83,6045.38 106.60,6112.50 116.62,6165.07 238.64,6161.48"/>
    <poly id="159276145" type="amenity" color="237,199,199" fill="1" layer="-1.00" shape="1523.72,5947.01 1523.34,5920.70 1548.41,5906.30 1568.51,5862.44 1635.46,5871.14 1634.91,5989.99 1611.54,6092.24 1581.89,6097.14 1576.26,6028.63 1568.30,6026.59 1546.63,6020.47 1535.63,6005.31 1530.09,5987.53 1523.72,5947.01"/>
    <poly id="159276147" type="amenity" color="237,199,199" fill="1" layer="-1.00" shape="1250.02,6015.53 1246.18,5922.08 1265.40,5917.85 1263.80,5886.29 1261.62,5867.33 1287.06,5858.74 1293.25,5878.13 1303.36,5875.12 1303.43,5914.73 1298.68,5948.72 1308.13,5983.11 1298.35,6015.44 1302.85,6024.94 1359.31,6020.40 1358.75,6069.69 1351.58,6077.59 1351.64,6103.33 1389.22,6111.37 1399.93,6188.30 1337.72,6192.43 1332.98,6167.45 1309.00,6110.12 1301.86,6065.66 1270.48,6066.01 1267.64,6015.06 1250.02,6015.53"/>
    <poly id="159277239" type="amenity" color="237,199,199" fill="1" layer="-1.00" shape="1686.99,6498.03 1671.30,6506.75 1648.58,6524.88 1630.63,6546.36 1616.51,6571.02 1604.70,6593.21 1590.78,6605.79 1574.82,6613.49 1550.02,6616.35 1522.91,6607.99 1507.56,6603.29 1472.32,6592.50 1439.79,6582.46 1435.98,6533.08 1460.27,6531.22 1469.91,6530.73 1469.32,6521.97 1460.32,6522.56 1451.99,6513.20 1450.77,6493.54 1467.24,6492.52 1485.85,6466.31 1517.09,6458.64 1534.81,6454.30 1522.68,6412.91 1549.67,6405.07 1552.61,6417.85 1594.47,6408.31 1588.39,6381.96 1578.17,6337.61 1576.94,6332.27 1676.13,6318.89 1686.99,6498.03"/>
    <poly id="159277241" type="amenity" color="237,199,199" fill="1" layer="-1.00" shape="1955.05,5991.69 1931.04,6014.75 1938.21,6027.67 1950.60,6024.86 2034.51,6072.25 2046.97,6078.04 2055.64,6079.68 2106.85,6091.27 2120.41,6089.07 2167.04,6097.42 2174.87,6080.62 2196.27,6068.17 2210.87,6030.01 2208.66,6021.34 2250.70,5923.07 2218.70,5832.97 2193.48,5761.96 2182.37,5730.67 2120.38,5731.27 2058.56,5848.44 2020.35,5883.81 1993.06,5908.08 1974.49,5933.45 1986.66,5945.15 1962.98,5998.74 1955.05,5991.69"/>
    <poly id="159277244" type="amenity" color="237,199,199" fill="1" layer="-1.00" shape="1809.67,6282.93 1733.50,6226.99 1790.06,6160.38 1811.24,6128.74 1826.14,6105.45 1851.34,6059.50 1972.62,6127.59 1981.10,6123.64 1988.45,6132.76 1984.18,6150.01 1993.54,6155.72 2024.00,6174.66 2037.09,6195.04 2012.94,6234.74 1981.25,6206.58 1954.25,6236.58 1926.21,6216.90 1903.52,6246.47 1884.58,6271.17 1853.87,6251.39 1844.53,6245.37 1836.51,6247.61 1809.67,6282.93"/>
    <poly id="159277247" type="leisure" color="207,245,201" fill="1" layer="-2.00" shape="1742.07,6364.54 1736.83,6366.20 1731.94,6368.69 1727.55,6371.99 1723.79,6375.97 1720.74,6380.53 1718.54,6385.54 1717.21,6390.85 1716.81,6396.30 1717.33,6401.74 1718.74,6406.93 1721.01,6411.80 1724.06,6416.25 1727.82,6420.11 1732.17,6423.32 1736.98,6425.73 1742.15,6427.34 1747.50,6428.06 1752.91,6427.88 1823.98,6422.22 1829.30,6420.86 1834.31,6418.64 1838.88,6415.62 1842.88,6411.87 1846.19,6407.53 1848.74,6402.69 1850.44,6397.50 1851.23,6392.10 1851.19,6390.57 1851.65,6390.08 1851.09,6386.64 1850.07,6381.27 1848.13,6376.15 1845.36,6371.43 1841.85,6367.23 1837.68,6363.66 1832.95,6360.85 1827.83,6358.86 1822.45,6357.77 1816.95,6357.56 1742.07,6364.54"/>
    <poly id="159277247#1" type="sport" color="79,230,125" fill="1" layer="-2.00" shape="1742.07,6364.54 1736.83,6366.20 1731.94,6368.69 1727.55,6371.99 1723.79,6375.97 1720.74,6380.53 1718.54,6385.54 1717.21,6390.85 1716.81,6396.30 1717.33,6401.74 1718.74,6406.93 1721.01,6411.80 1724.06,6416.25 1727.82,6420.11 1732.17,6423.32 1736.98,6425.73 1742.15,6427.34 1747.50,6428.06 1752.91,6427.88 1823.98,6422.22 1829.30,6420.86 1834.31,6418.64 1838.88,6415.62 1842.88,6411.87 1846.19,6407.53 1848.74,6402.69 1850.44,6397.50 1851.23,6392.10 1851.19,6390.57 1851.65,6390.08 1851.09,6386.64 1850.07,6381.27 1848.13,6376.15 1845.36,6371.43 1841.85,6367.23 1837.68,6363.66 1832.95,6360.85 1827.83,6358.86 1822.45,6357.77 1816.95,6357.56 1742.07,6364.54"/>
    <poly id="159277248" type="leisure" color="207,245,201" fill="1" layer="-2.00" shape="1830.37,6348.04 1826.68,6310.97 1792.37,6314.40 1796.07,6350.94 1830.37,6348.04"/>
    <poly id="159277248#1" type="sport" color="79,230,125" fill="1" layer="-2.00" shape="1830.37,6348.04 1826.68,6310.97 1792.37,6314.40 1796.07,6350.94 1830.37,6348.04"/>
    <poly id="159277250" type="leisure" color="207,245,201" fill="1" layer="-2.00" shape="1830.37,6348.04 1848.29,6346.27 1844.61,6309.21 1826.68,6310.97 1830.37,6348.04"/>
    <poly id="159277250#1" type="sport" color="79,230,125" fill="1" layer="-2.00" shape="1830.37,6348.04 1848.29,6346.27 1844.61,6309.21 1826.68,6310.97 1830.37,6348.04"/>
    <poly id="159277252" type="leisure" color="207,245,201" fill="1" layer="-2.00" shape="1762.65,6354.29 1758.65,6314.69 1792.07,6311.34 1792.37,6314.40 1796.07,6350.94 1772.19,6353.33 1762.65,6354.29"/>
    <poly id="159277252#1" type="sport" color="79,230,125" fill="1" layer="-2.00" shape="1762.65,6354.29 1758.65,6314.69 1792.07,6311.34 1792.37,6314.40 1796.07,6350.94 1772.19,6353.33 1762.65,6354.29"/>
    <poly id="159912304" type="amenity" color="237,199,199" fill="1" layer="-1.00" shape="955.75,8182.58 969.01,8180.23 1001.88,8174.40 1034.15,8169.05 1045.59,8161.60 1057.59,8163.50 1121.86,8149.40 1124.16,8154.09 1142.98,8151.38 1147.12,8190.21 1144.97,8207.86 1150.40,8218.25 1157.92,8223.92 1162.59,8225.33 1174.70,8282.74 1005.13,8339.54 955.75,8182.58"/>
    <poly id="159912310" type="amenity" color="237,199,199" fill="1" layer="-1.00" shape="1752.01,8033.13 1677.41,7931.45 1644.06,7952.77 1608.31,7941.37 1598.55,7968.43 1590.06,7969.88 1559.98,8052.34 1623.09,8143.81 1628.31,8141.51 1631.55,8146.15 1710.34,8096.78 1755.88,8064.95 1748.28,8052.30 1752.01,8033.13"/>
    <poly id="160088280" type="tourism" color="207,245,201" fill="1" layer="-2.00" shape="1336.40,6213.24 1426.13,6205.39 1438.41,6329.44 1347.33,6339.78 1336.40,6213.24"/>
    <poly id="160088281" type="amenity" color="237,199,199" fill="1" layer="-1.00" shape="2956.98,7639.28 3050.88,7630.98 3036.86,7470.65 2881.25,7485.78 2894.65,7523.30 2915.21,7556.37 2938.21,7599.77 2956.98,7639.28"/>
    <poly id="160088282" type="amenity" color="237,199,199" fill="1" layer="-1.00" shape="1230.53,6445.10 1220.69,6454.13 1218.50,6436.79 1199.61,6437.38 1197.28,6416.11 1194.22,6388.28 1276.83,6368.31 1315.21,6323.46 1328.71,6347.74 1337.40,6346.38 1345.53,6433.15 1246.50,6455.76 1230.53,6445.10"/>
    <poly id="160088283" type="amenity" color="237,199,199" fill="1" layer="-1.00" shape="1055.08,6534.06 1042.05,6384.55 1040.76,6378.06 1037.61,6375.13 1033.24,6374.50 988.62,6380.79 988.01,6384.50 983.95,6385.46 984.80,6393.89 973.58,6395.13 981.33,6419.14 972.70,6421.94 965.00,6400.18 954.72,6404.88 971.72,6538.96 1055.08,6534.06"/>
    <poly id="160088284" type="amenity" color="237,199,199" fill="1" layer="-1.00" shape="579.87,6697.26 576.47,6663.03 643.07,6637.58 674.78,6644.26 746.27,6626.14 755.59,6632.44 737.30,6645.63 737.46,6718.47 721.03,6722.34 720.64,6731.03 678.18,6731.08 678.18,6741.00 638.33,6741.56 638.59,6770.85 612.73,6770.88 583.98,6719.39 585.30,6705.97 579.87,6697.26"/>
    <poly id="160088285" type="amenity" color="237,199,199" fill="1" layer="-1.00" shape="2696.69,7908.77 2680.41,7785.25 2685.73,7774.16 2739.25,7756.41 2777.10,7749.24 2809.12,7752.22 2866.97,7772.40 2875.32,7845.82 2835.50,7849.73 2839.75,7896.50 2815.78,7900.78 2813.29,7896.05 2809.46,7897.07 2805.86,7871.56 2792.75,7865.12 2778.51,7862.04 2761.20,7862.37 2746.17,7864.14 2741.64,7875.02 2743.44,7894.84 2696.69,7908.77"/>
    <poly id="160088286" type="tourism" color="207,245,201" fill="1" layer="-2.00" shape="2616.43,7269.71 2592.01,7190.86 2572.04,7196.90 2548.99,7203.41 2456.31,7214.70 2402.94,7218.26 2394.56,7233.42 2415.41,7375.89 2428.71,7384.50 2653.80,7338.34 2674.99,7308.29 2616.43,7269.71"/>
    <poly id="160088287" type="amenity" color="237,199,199" fill="1" layer="-1.00" shape="2361.70,6745.50 2493.41,6742.59 2516.92,6742.12 2583.81,6740.81 2570.76,6669.56 2586.96,6667.34 2583.63,6651.53 2564.14,6654.36 2514.84,6432.95 2435.34,6439.55 2331.67,6454.45 2361.70,6745.50"/>
    <poly id="160088288" type="tourism" color="207,245,201" fill="1" layer="-2.00" shape="2512.18,7041.67 2496.36,7008.66 2492.56,6980.62 2379.80,6982.70 2374.46,6989.23 2378.77,7067.98 2424.68,7067.71 2469.64,7055.39 2512.18,7041.67"/>
    <poly id="160088289" type="tourism" color="207,245,201" fill="1" layer="-2.00" shape="2333.28,6448.71 2313.39,6255.41 2313.04,6239.05 2323.30,6221.47 2337.34,6209.15 2360.25,6191.77 2369.60,6179.93 2375.44,6165.74 2383.73,6162.27 2393.24,6158.29 2394.50,6157.85 2447.74,6138.91 2513.96,6427.43 2505.82,6426.35 2333.28,6448.71"/>
    <poly id="160088290" type="tourism" color="207,245,201" fill="1" layer="-2.00" shape="2486.93,6748.94 2349.00,6750.50 2368.42,6959.77 2379.14,6968.16 2492.46,6965.22 2503.39,6957.73 2486.93,6748.94"/>
    <poly id="160088291" type="amenity" color="237,199,199" fill="1" layer="-1.00" shape="862.88,6702.77 769.52,6641.84 755.59,6632.44 737.30,6645.63 737.46,6718.47 721.03,6722.34 720.64,6731.03 678.18,6731.08 678.18,6741.00 638.33,6741.56 638.59,6770.85 612.73,6770.88 610.72,6775.06 611.22,6776.79 613.17,6783.46 606.45,6786.52 605.21,6815.44 600.08,6825.13 596.39,6835.40 596.37,6845.80 634.04,6912.76 748.34,6891.46 749.17,6881.68 812.36,6861.43 820.62,6877.27 830.68,6875.72 827.95,6856.98 827.50,6854.48 894.64,6841.31 862.88,6702.77"/>
    <poly id="160088292" type="tourism" color="207,245,201" fill="1" layer="-2.00" shape="2369.75,7876.48 2324.76,7826.06 2346.94,7809.08 2302.32,7759.00 2094.55,7921.46 2150.15,7938.68 2139.89,7960.94 2208.41,8005.61 2369.75,7876.48"/>
    <poly id="160095110" type="amenity" color="237,199,199" fill="0" layer="-1.00" shape="2881.20,6297.10 3031.39,6279.11 3008.53,6089.88 2857.90,6108.33 2863.10,6190.41 2866.55,6203.53"/>
    <poly id="160095113" type="amenity" color="237,199,199" fill="1" layer="-1.00" shape="2676.20,7924.25 2682.63,7918.40 2756.06,7893.15 2776.54,7956.74 2826.22,7941.54 2840.50,7981.89 2733.93,8010.12 2727.48,8010.24 2700.29,7974.58 2694.32,7964.90 2676.20,7924.25"/>
    <poly id="160095125" type="landuse" color="194,194,130" fill="1" layer="-3.00" shape="2898.49,6527.61 2991.73,6507.84 2972.85,6375.09 2869.19,6392.09 2867.01,6395.15 2898.49,6527.61"/>
    <poly id="160312859" type="amenity" color="237,199,199" fill="1" layer="-1.00" shape="936.38,6703.45 987.57,6740.03 998.75,6724.56 1001.27,6726.36 1013.03,6710.08 1016.28,6705.59 959.74,6665.19 955.08,6671.63 953.55,6670.54 941.67,6686.97 946.04,6690.09 936.38,6703.45"/>
    <poly id="160312859#1" type="building" color="255,230,230" fill="1" layer="-1.00" shape="936.38,6703.45 987.57,6740.03 998.75,6724.56 1001.27,6726.36 1013.03,6710.08 1016.28,6705.59 959.74,6665.19 955.08,6671.63 953.55,6670.54 941.67,6686.97 946.04,6690.09 936.38,6703.45"/>
    <poly id="160312860" type="amenity" color="237,199,199" fill="0" layer="-1.00" shape="1123.46,6794.04 1129.06,6791.55 1154.36,6785.54"/>
    <poly id="160312860#1" type="building" color="255,230,230" fill="0" layer="-1.00" shape="1123.46,6794.04 1129.06,6791.55 1154.36,6785.54"/>
    <poly id="160312861" type="building" color="255,230,230" fill="1" layer="-1.00" shape="888.08,6647.73 891.06,6645.20 894.40,6642.07 897.64,6638.26 899.91,6634.31 901.63,6629.39 902.32,6624.57 902.12,6619.78 901.25,6615.78 898.67,6609.90 895.84,6605.99 892.02,6602.43 887.54,6599.67 882.37,6597.79 876.97,6597.02 876.85,6581.47 870.30,6582.11 869.55,6580.29 850.85,6584.04 860.63,6633.68 854.46,6634.89 859.82,6662.14 872.84,6670.53 888.08,6647.73"/>
    <poly id="160312861#1" type="shop" color="237,199,255" fill="1" layer="-1.00" shape="888.08,6647.73 891.06,6645.20 894.40,6642.07 897.64,6638.26 899.91,6634.31 901.63,6629.39 902.32,6624.57 902.12,6619.78 901.25,6615.78 898.67,6609.90 895.84,6605.99 892.02,6602.43 887.54,6599.67 882.37,6597.79 876.97,6597.02 876.85,6581.47 870.30,6582.11 869.55,6580.29 850.85,6584.04 860.63,6633.68 854.46,6634.89 859.82,6662.14 872.84,6670.53 888.08,6647.73"/>
    <poly id="160312863" type="parking" color="184,184,179" fill="1" layer="-1.00" shape="1592.70,6757.47 1580.89,6668.00 1572.70,6669.18 1539.96,6673.90 1486.35,6681.63 1483.23,6684.25 1493.36,6772.95 1592.70,6757.47"/>
    <poly id="160314784" type="farm" color="242,242,204" fill="1" layer="-3.00" shape="858.18,6918.99 864.23,6949.42 855.14,6962.57 850.46,6965.94 845.39,6969.61 842.56,6973.12 861.63,6980.64 865.64,6987.09 864.03,6994.86 874.12,6997.17 878.47,7006.83 927.68,6995.32 908.12,6913.54 902.19,6910.16 858.18,6918.99"/>
    <poly id="160314786" type="building" color="255,230,230" fill="1" layer="-1.00" shape="905.84,6834.17 939.84,6827.34 948.49,6869.95 914.48,6876.78 905.84,6834.17"/>
    <poly id="160314786#1" type="shop" color="237,199,255" fill="1" layer="-1.00" shape="905.84,6834.17 939.84,6827.34 948.49,6869.95 914.48,6876.78 905.84,6834.17"/>
    <poly id="160314787" type="building" color="255,230,230" fill="1" layer="-1.00" shape="938.63,6814.89 954.79,6811.55 955.60,6815.92 958.60,6815.27 960.56,6824.30 962.52,6833.33 970.58,6831.43 972.57,6829.40 972.29,6819.47 982.46,6823.68 984.77,6830.18 988.59,6830.06 1002.34,6839.54 1000.36,6842.60 998.03,6846.84 995.57,6852.50 993.61,6858.79 992.43,6864.75 959.37,6871.66 958.55,6868.09 949.83,6869.60 938.63,6814.89"/>
    <poly id="160314787#1" type="tourism" color="207,245,201" fill="1" layer="-2.00" shape="938.63,6814.89 954.79,6811.55 955.60,6815.92 958.60,6815.27 960.56,6824.30 962.52,6833.33 970.58,6831.43 972.57,6829.40 972.29,6819.47 982.46,6823.68 984.77,6830.18 988.59,6830.06 1002.34,6839.54 1000.36,6842.60 998.03,6846.84 995.57,6852.50 993.61,6858.79 992.43,6864.75 959.37,6871.66 958.55,6868.09 949.83,6869.60 938.63,6814.89"/>
    <poly id="160314789" type="building" color="255,230,230" fill="1" layer="-1.00" shape="982.73,6902.47 984.27,6894.10 994.66,6891.69 999.59,6894.03 1002.74,6898.79 1009.57,6907.42 1024.44,6918.29 1031.42,6920.93 1037.53,6922.47 1043.44,6922.80 1042.31,6932.99 1039.58,6939.73 1035.94,6944.87 1031.80,6948.88 1027.69,6951.73 1022.25,6954.27 1016.72,6955.74 1011.27,6956.23 1006.40,6955.90 1001.17,6954.72 995.99,6952.60 991.60,6949.89 987.75,6946.60 983.56,6941.45 980.92,6936.60 979.01,6930.81 978.35,6926.81 978.26,6921.67 978.69,6918.01 980.11,6912.59 981.25,6907.71 982.73,6902.47"/>
    <poly id="160321089" type="amenity" color="237,199,199" fill="1" layer="-1.00" shape="455.78,6327.24 452.74,6311.09 428.70,6315.56 431.73,6331.72 455.78,6327.24"/>
    <poly id="160321089#1" type="building" color="255,230,230" fill="1" layer="-1.00" shape="455.78,6327.24 452.74,6311.09 428.70,6315.56 431.73,6331.72 455.78,6327.24"/>
    <poly id="161019137" type="amenity" color="237,199,199" fill="1" layer="-1.00" shape="412.04,6450.69 411.30,6446.54 408.33,6447.06 406.79,6438.57 409.92,6438.01 409.06,6433.20 412.61,6432.57 412.84,6433.83 430.08,6430.74 432.91,6446.01 416.05,6449.01 416.22,6449.94 412.04,6450.69"/>
    <poly id="161019137#1" type="building" color="255,230,230" fill="1" layer="-1.00" shape="412.04,6450.69 411.30,6446.54 408.33,6447.06 406.79,6438.57 409.92,6438.01 409.06,6433.20 412.61,6432.57 412.84,6433.83 430.08,6430.74 432.91,6446.01 416.05,6449.01 416.22,6449.94 412.04,6450.69"/>
    <poly id="161019139" type="farm" color="242,242,204" fill="0" layer="-3.00" shape="310.92,6454.39 310.52,6436.41 380.41,6431.55 390.10,6487.00 387.61,6490.83 358.95,6501.09 355.38,6499.06 350.38,6486.92 339.48,6488.62"/>
    <poly id="161019141" type="parking" color="184,184,179" fill="1" layer="-1.00" shape="362.10,6447.69 361.32,6436.35 373.00,6435.57 372.96,6448.33 362.10,6447.69"/>
    <poly id="161023086" type="building" color="255,230,230" fill="1" layer="-1.00" shape="246.22,6711.01 215.12,6630.00 209.20,6625.90 183.44,6636.30 200.05,6685.51 203.15,6694.68 206.59,6693.50 216.09,6720.77 213.50,6721.67 214.33,6724.04 217.56,6725.74 243.78,6715.12 246.22,6711.01"/>
    <poly id="161023087" type="water" color="181,209,209" fill="1" layer="-4.00" shape="495.47,6628.78 496.25,6630.49 498.41,6629.51 488.35,6612.39 471.25,6623.33 469.21,6638.11 470.71,6640.90 474.88,6638.34 488.81,6632.74 486.53,6627.75 491.30,6625.59 493.21,6629.80 495.47,6628.78"/>
    <poly id="161023095" type="building" color="255,230,230" fill="1" layer="-1.00" shape="465.16,6553.81 472.65,6550.14 471.21,6547.23 477.43,6544.18 478.77,6546.86 485.73,6543.45 502.43,6577.16 480.85,6587.73 478.46,6582.89 480.42,6581.93 469.37,6559.62 464.20,6562.15 461.69,6557.10 465.80,6555.09 465.16,6553.81"/>
    <poly id="161023095#1" type="historic" color="128,255,128" fill="1" layer="-1.00" shape="465.16,6553.81 472.65,6550.14 471.21,6547.23 477.43,6544.18 478.77,6546.86 485.73,6543.45 502.43,6577.16 480.85,6587.73 478.46,6582.89 480.42,6581.93 469.37,6559.62 464.20,6562.15 461.69,6557.10 465.80,6555.09 465.16,6553.81"/>
    <poly id="161023095#2" type="tourism" color="207,245,201" fill="1" layer="-2.00" shape="465.16,6553.81 472.65,6550.14 471.21,6547.23 477.43,6544.18 478.77,6546.86 485.73,6543.45 502.43,6577.16 480.85,6587.73 478.46,6582.89 480.42,6581.93 469.37,6559.62 464.20,6562.15 461.69,6557.10 465.80,6555.09 465.16,6553.81"/>
    <poly id="161023099" type="historic" color="128,255,128" fill="1" layer="-1.00" shape="506.72,6630.25 468.93,6648.85 457.34,6637.91 457.73,6632.41 460.38,6623.99 462.09,6623.49 461.51,6617.91 466.16,6616.58 466.99,6610.84 453.66,6577.53 460.52,6574.07 446.80,6543.38 487.27,6523.25 505.79,6560.82 503.71,6561.90 534.49,6619.06 517.37,6629.31 506.72,6630.25"/>
    <poly id="161023099#1" type="farm" color="242,242,204" fill="1" layer="-3.00" shape="506.72,6630.25 468.93,6648.85 457.34,6637.91 457.73,6632.41 460.38,6623.99 462.09,6623.49 461.51,6617.91 466.16,6616.58 466.99,6610.84 453.66,6577.53 460.52,6574.07 446.80,6543.38 487.27,6523.25 505.79,6560.82 503.71,6561.90 534.49,6619.06 517.37,6629.31 506.72,6630.25"/>
    <poly id="161023099#2" type="tourism" color="207,245,201" fill="1" layer="-2.00" shape="506.72,6630.25 468.93,6648.85 457.34,6637.91 457.73,6632.41 460.38,6623.99 462.09,6623.49 461.51,6617.91 466.16,6616.58 466.99,6610.84 453.66,6577.53 460.52,6574.07 446.80,6543.38 487.27,6523.25 505.79,6560.82 503.71,6561.90 534.49,6619.06 517.37,6629.31 506.72,6630.25"/>
    <poly id="161023100" type="building" color="255,230,230" fill="1" layer="-1.00" shape="459.29,6637.45 460.99,6641.76 465.41,6638.55 468.49,6641.90 471.90,6649.36 496.04,6638.48 497.69,6638.11 505.20,6651.89 509.38,6659.59 507.79,6661.64 504.45,6665.96 506.63,6671.50 460.52,6689.75 451.99,6687.13 442.27,6641.49 457.34,6637.91 459.29,6637.45"/>
    <poly id="161023100#1" type="shop" color="237,199,255" fill="1" layer="-1.00" shape="459.29,6637.45 460.99,6641.76 465.41,6638.55 468.49,6641.90 471.90,6649.36 496.04,6638.48 497.69,6638.11 505.20,6651.89 509.38,6659.59 507.79,6661.64 504.45,6665.96 506.63,6671.50 460.52,6689.75 451.99,6687.13 442.27,6641.49 457.34,6637.91 459.29,6637.45"/>
    <poly id="161024938" type="amenity" color="237,199,199" fill="1" layer="-1.00" shape="631.66,6515.90 658.64,6534.55 697.53,6498.47 694.66,6491.64 696.52,6491.28 691.22,6478.21 680.62,6483.41 667.73,6462.38 637.54,6485.38 643.47,6488.95 641.78,6490.83 647.13,6494.53 631.66,6515.90"/>
    <poly id="161024940" type="tourism" color="207,245,201" fill="1" layer="-2.00" shape="463.17,6590.25 459.53,6583.00 468.43,6578.59 472.07,6585.85 463.17,6590.25"/>
    <poly id="161024941" type="amenity" color="237,199,199" fill="1" layer="-1.00" shape="467.21,6605.90 463.67,6597.60 474.49,6593.03 478.03,6601.33 467.21,6605.90"/>
    <poly id="161025892" type="building" color="255,230,230" fill="1" layer="-1.00" shape="292.56,6230.24 295.34,6252.98 290.49,6254.98 284.94,6259.29 283.16,6263.14 276.78,6265.97 275.99,6264.20 264.44,6269.30 265.50,6285.38 265.66,6287.56 265.89,6290.65 266.36,6297.62 299.39,6306.55 300.19,6309.70 303.24,6311.36 306.21,6310.31 307.57,6307.11 317.45,6297.46 320.60,6300.65 326.23,6295.15 323.14,6292.02 329.78,6285.55 332.96,6287.15 335.55,6285.88 336.49,6282.59 333.93,6280.59 330.38,6251.65 332.87,6251.34 331.36,6238.91 329.76,6239.11 328.14,6225.93 292.56,6230.24"/>
    <poly id="161025892#1" type="tourism" color="207,245,201" fill="1" layer="-2.00" shape="292.56,6230.24 295.34,6252.98 290.49,6254.98 284.94,6259.29 283.16,6263.14 276.78,6265.97 275.99,6264.20 264.44,6269.30 265.50,6285.38 265.66,6287.56 265.89,6290.65 266.36,6297.62 299.39,6306.55 300.19,6309.70 303.24,6311.36 306.21,6310.31 307.57,6307.11 317.45,6297.46 320.60,6300.65 326.23,6295.15 323.14,6292.02 329.78,6285.55 332.96,6287.15 335.55,6285.88 336.49,6282.59 333.93,6280.59 330.38,6251.65 332.87,6251.34 331.36,6238.91 329.76,6239.11 328.14,6225.93 292.56,6230.24"/>